26

C      2.684198   -1.383729   -0.421547
C      1.846250   -0.103855   -0.551781
C      2.515284    0.916850    0.347104
C      0.473657   -0.447250   -0.032105
C     -0.487057    0.685825   -0.081313
C     -1.818862    0.173706    0.476648
C     -2.356896   -0.969707   -0.321777
C     -2.845175    1.293331    0.495064
H      3.292443   -1.368869    0.510105
H      3.358498   -1.483276   -1.290483
H      2.025013   -2.280566   -0.328045
H      1.844792    0.242909   -1.591439
H      3.602927    0.941512    0.136705
H      2.411419    0.574906    1.409362
H      2.036156    1.910401    0.282588
H      0.610056   -0.724461    1.047472
H      0.045764   -1.340867   -0.518032
H     -0.614128    1.165187   -1.050435
H     -0.151841    1.475632    0.638118
H     -1.697820   -0.167277    1.523983
H     -1.873901   -1.918428   -0.061469
H     -2.321384   -0.804451   -1.414449
H     -3.441933   -1.073693   -0.053292
H     -2.323707    2.170391    0.973314
H     -3.125687    1.531002   -0.533755
H     -3.688066    0.984779    1.137469
