11

N      1.130779    0.497537    0.646974
C      0.497286   -0.190156   -0.439984
C     -0.959489   -0.494015   -0.167027
O     -1.675499    0.682625    0.049925
H      1.223867   -0.054949    1.506878
H      2.025259    0.908545    0.338148
H      0.500847    0.517362   -1.315203
H      1.027900   -1.093522   -0.782378
H     -1.365029   -0.935788   -1.110358
H     -1.085258   -1.220990    0.663143
H     -1.320664    1.383351   -0.544612
