15

C      0.691856   -1.070998   -0.680670
C     -0.024001   -0.044444    0.202476
C      0.530186    1.331646    0.037029
C     -1.488152   -0.156326   -0.073728
O      0.244631   -0.445408    1.527111
H      0.441559   -0.833918   -1.717265
H      1.759046   -1.031612   -0.432113
H      0.270550   -2.060918   -0.354149
H      0.497605    1.865580    1.018873
H      0.021275    1.950611   -0.709729
H      1.614387    1.238772   -0.237374
H     -1.683059   -0.649939   -1.062617
H     -1.933234   -0.860302    0.679354
H     -2.038705    0.793132   -0.030271
H      1.096057   -0.025876    1.833072
