17

C      1.976081    0.165575    0.409992
C      0.730831   -0.662079    0.316189
C     -0.356360   -0.013796   -0.506682
C     -0.794808    1.308447    0.038508
C     -1.557969   -0.967133   -0.449494
H      1.893962    1.089183   -0.178794
H      2.141205    0.402918    1.501460
H      2.880779   -0.402485    0.107268
H      1.005890   -1.608798   -0.235064
H      0.345122   -0.945099    1.300139
H     -0.032957    0.079642   -1.556406
H     -0.241077    1.631855    0.928355
H     -1.897210    1.323688    0.253387
H     -0.635957    2.121998   -0.728239
H     -2.500243   -0.409291   -0.652961
H     -1.584117   -1.336492    0.605447
H     -1.373172   -1.778132   -1.153105
