12

C     -1.257432    0.144739   -0.129847
C      0.024069   -0.000488    0.652903
O      0.212171   -1.383762    0.849723
C      1.153889    0.423530   -0.291549
H     -1.051887   -0.231621   -1.163009
H     -1.612647    1.180465   -0.194593
H     -2.069547   -0.460337    0.347753
H      0.049933    0.569279    1.578361
H      0.376837   -1.741885   -0.076812
H      0.879198    0.011080   -1.277983
H      2.082884   -0.024891    0.101908
H      1.212532    1.513890   -0.396856
