14

C      1.906705   -0.075352   -0.055071
C      0.484688   -0.537181    0.017247
C     -0.507638    0.607056   -0.009173
C     -1.910372    0.059273    0.067212
H      2.104802    0.560541   -0.945219
H      2.168192    0.508681    0.872891
H      2.543564   -0.978391   -0.163135
H      0.299792   -1.263112   -0.788180
H      0.352155   -1.073395    0.982874
H     -0.285574    1.364051    0.761635
H     -0.401508    1.080413   -1.020460
H     -2.468037    0.185324   -0.890513
H     -1.875658   -1.028463    0.256471
H     -2.411111    0.590554    0.913422
