10

O     -1.277637    0.840345   -0.355984
C     -0.587048   -0.353671   -0.383471
C      0.676058   -0.320453    0.444190
O      1.552572    0.658313   -0.008503
H     -1.590330    1.056040    0.557871
H     -1.258020   -1.162493   -0.068096
H     -0.295496   -0.551906   -1.437738
H      0.491186   -0.219390    1.517829
H      1.185603   -1.297840    0.279034
H      1.103112    1.351056   -0.545132
