20

C     -2.492426    0.815351    0.277660
C     -1.345265   -0.176918    0.385715
C     -0.481198    0.008601   -0.827340
C      0.704271   -0.921674   -0.847145
C      1.611110   -0.741006    0.331533
C      2.194686    0.626787    0.450057
H     -2.818946    1.171726    1.274909
H     -2.242289    1.663766   -0.383252
H     -3.396603    0.331436   -0.178976
H     -0.774012   -0.029160    1.332768
H     -1.788656   -1.173474    0.412460
H     -0.206805    1.070381   -0.991313
H     -1.112889   -0.274051   -1.714206
H      1.243686   -0.843125   -1.806598
H      0.288234   -1.959150   -0.779520
H      2.446075   -1.461172    0.223171
H      1.052469   -1.010395    1.257176
H      2.608608    0.713317    1.498479
H      3.073068    0.761189   -0.214243
H      1.436881    1.427572    0.298663
