11

C     -1.211394    0.211332    0.082438
C      0.021971   -0.571669   -0.341733
C      1.217455    0.158204    0.226677
H     -0.945325    1.220488    0.459404
H     -1.782071   -0.327454    0.849702
H     -1.834125    0.384564   -0.825318
H     -0.057309   -1.614859    0.020403
H      0.068301   -0.648160   -1.459724
H      2.061329   -0.493512    0.464812
H      0.917765    0.799135    1.093309
H      1.543402    0.881930   -0.569969
