14

C     -1.115567   -0.543781   -0.360531
O     -1.018986   -1.483625    0.673866
C     -0.247254    0.617778    0.030404
O     -0.244221    1.630902   -0.903547
C      1.161664    0.099361    0.277449
O      1.718814   -0.400904   -0.899667
H     -0.833052   -1.006174   -1.314769
H     -2.165162   -0.183055   -0.442720
H     -1.061030   -1.040775    1.557086
H     -0.612986    0.990322    1.012212
H     -0.285046    2.500475   -0.413281
H      1.834202    0.927665    0.618772
H      1.127909   -0.703481    1.037562
H      1.740715   -1.404707   -0.872837
