12

C      1.477645    0.243514    0.083723
C      0.169401   -0.449796   -0.137138
C     -1.018430    0.458102   -0.044638
O     -2.158322   -0.346110   -0.275249
H      2.264785   -0.559645    0.112394
H      1.555430    0.772763    1.039718
H      1.738481    0.889181   -0.761864
H      0.182546   -0.873870   -1.163177
H      0.051749   -1.286149    0.556869
H     -0.986740    1.249416   -0.838350
H     -1.141719    0.922833    0.954011
H     -2.134827   -1.020240    0.473702
